[ZoneTransfer]
ZoneId=3
ReferrerUrl=https://mail.zju.edu.cn/coremail/XT/index.jsp?sid=EAWIwxppaMheCYlfzZJFuaPWNnaxcdxC
HostUrl=https://mail.zju.edu.cn/coremail/mbox-data/DualSPHysics%2B_DRL.pdf?part=3&mid=3%3A1tbiAwIAEWd9MqQXmQAAsS&mode=download
